Version 4
SHEET 1 1320 680
WIRE 960 -224 784 -224
WIRE 784 -128 784 -224
WIRE 832 -128 784 -128
WIRE 960 -112 960 -224
WIRE 960 -112 896 -112
WIRE 864 -48 864 -80
WIRE 192 0 128 0
WIRE 368 0 272 0
WIRE -256 112 -352 112
WIRE -80 112 -176 112
WIRE 128 112 128 0
WIRE 128 112 0 112
WIRE 192 112 128 112
WIRE -352 128 -352 112
WIRE 368 128 368 0
WIRE 368 128 256 128
WIRE 416 128 368 128
WIRE 16 144 -176 144
WIRE 128 144 96 144
WIRE 192 144 128 144
WIRE 128 192 128 144
WIRE 224 192 224 160
WIRE -352 224 -352 208
WIRE -176 224 -176 144
WIRE -176 224 -352 224
WIRE 288 240 256 240
WIRE 880 240 848 240
WIRE 128 288 128 272
WIRE 256 288 256 240
WIRE 256 288 128 288
WIRE 256 336 256 288
WIRE 288 336 256 336
WIRE 848 384 848 240
WIRE 1104 384 1104 368
WIRE 1104 384 848 384
WIRE 1104 400 1104 384
WIRE -256 432 -256 416
WIRE -144 432 -144 416
WIRE -144 432 -256 432
WIRE -32 432 -32 416
WIRE -32 432 -144 432
WIRE -144 464 -144 432
FLAG 224 192 0
FLAG 224 96 VDD
FLAG -32 336 VBIAS
FLAG -144 336 VDD
FLAG 368 240 VBIAS
FLAG 368 336 VBIAS
FLAG 416 128 VOUT
FLAG -144 464 0
FLAG -256 336 VREF
FLAG 1104 80 VREF
FLAG 1104 400 0
FLAG 1232 128 VDD
FLAG 1232 224 VADC
FLAG 1232 320 VDD
FLAG 864 -48 0
FLAG 864 -144 VDD
FLAG 832 -96 VOUT
FLAG 960 -112 VBUF
FLAG 880 208 VBUF
SYMBOL res 288 -16 R90
WINDOW 0 0 56 VBottom 2
WINDOW 3 32 56 VTop 2
SYMATTR InstName R1
SYMATTR Value {Rf}
SYMBOL res 16 96 R90
WINDOW 0 0 56 VBottom 2
WINDOW 3 32 56 VTop 2
SYMATTR InstName R2
SYMATTR Value {R}
SYMBOL res 112 128 R90
WINDOW 0 0 56 VBottom 2
WINDOW 3 32 56 VTop 2
SYMATTR InstName R3
SYMATTR Value {R}
SYMBOL voltage -352 112 R0
WINDOW 123 0 0 Left 0
WINDOW 39 0 0 Left 0
SYMATTR InstName V1
SYMATTR Value SINE(0 1 1k)
SYMBOL voltage -32 320 R0
WINDOW 123 0 0 Left 0
WINDOW 39 0 0 Left 0
SYMATTR InstName V3
SYMATTR Value 2.5
SYMBOL voltage -144 320 R0
WINDOW 123 0 0 Left 0
WINDOW 39 0 0 Left 0
SYMATTR InstName VD1
SYMATTR Value 5
SYMBOL res 112 176 R0
SYMATTR InstName R4
SYMATTR Value {Rf}
SYMBOL res 384 224 R90
WINDOW 0 0 56 VBottom 2
WINDOW 3 32 56 VTop 2
SYMATTR InstName R5
SYMATTR Value {Rb}
SYMBOL res 384 320 R90
WINDOW 0 0 56 VBottom 2
WINDOW 3 32 56 VTop 2
SYMATTR InstName R6
SYMATTR Value {Rb}
SYMBOL res -160 96 R90
WINDOW 0 0 56 VBottom 2
WINDOW 3 32 56 VTop 2
SYMATTR InstName RTACH
SYMATTR Value {RTACH}
SYMBOL OpAmps\\UniversalOpAmp4 224 128 R0
SYMATTR InstName U2
SYMBOL ADC\\AD4001 1136 224 R0
SYMATTR InstName U1
SYMBOL voltage -256 320 R0
WINDOW 123 0 0 Left 0
WINDOW 39 0 0 Left 0
SYMATTR InstName V2
SYMATTR Value 5
SYMBOL OpAmps\\UniversalOpAmp4 864 -112 R0
SYMATTR InstName U3
TEXT -144 -152 Left 2 !.tran 40m
TEXT 616 40 Left 2 !.param RTACH=37.7\n.param R=400k\n.param Rf=200k\n.param Rb=50k\n.param G={Rf/R}\n.param A=3.94
TEXT 456 -96 Left 2 !.include opamp.sub
